lehigh_fuller.dss
clear
set defaultbasefrequency=60
new object=circuit.lehigh basekv=115 pu=1.0001 phases=3 bus1=sourcebus angle=30 mvasc3=20000 mvasc1=21000
edit object=vsource.source basekv=115 bus1=sourcebus.1.2.3 pu=1.00 r1=0 x1=0.0001 r0=0 x0=0.0001
new object=vsource.secondsource basekv=4.16 bus1=680.1.2.3 pu=1.00 r1=0 x1=0.0001 r0=0 x0=0.0001
new object=transformer.sub phases=3 windings=2 xhl=0.008 buses=[sourcebus.1.2.3,650.1.2.3] conns=[delta,wye] kvs=[115,4.16] kvas=[5000,5000] %rs=[0.0005,0.0005]
new object=transformer.reg1 phases=1 bank=reg1 xhl=0.01 kvas=[1666,1666] buses=[650.1,rg60.1] kvs=[2.4,2.4] %loadloss=0.01
new object=regcontrol.reg1 transformer=reg1 winding=2 vreg=121 band=2 ptratio=20 ctprim=700 r=3 x=9
new object=transformer.reg2 phases=1 bank=reg1 xhl=0.01 kvas=[1666,1666] buses=[650.2,rg60.2] kvs=[2.4,2.4] %loadloss=0.01
new object=regcontrol.reg2 transformer=reg2 winding=2 vreg=121 band=2 ptratio=20 ctprim=700 r=3 x=9
new object=transformer.reg3 phases=1 bank=reg1 xhl=0.01 kvas=[1666,1666] buses=[650.3,rg60.3] kvs=[2.4,2.4] %loadloss=0.01
new object=regcontrol.reg3 transformer=reg3 winding=2 vreg=121 band=2 ptratio=20 ctprim=700 r=3 x=9
new object=transformer.xfm1 phases=3 windings=2 xhl=2 buses=[633.1.2.3,634.1.2.3] conns=[wye,wye] kvs=[4.16,0.480] kvas=[500,500] %rs=[0.55,0.55] xht=1 xlt=1
new object=linecode.mtx601 nphases=3 basefreq=60 rmatrix=[0.3465|0.1560,0.3375|0.1580,0.1535,0.3414] xmatrix=[1.0179|0.5017,1.0478|0.4236,0.3849,1.0348] units=mi
new object=linecode.mtx602 nphases=3 basefreq=60 rmatrix=[0.7526|0.1580,0.7475|0.1560,0.1535,0.7436] xmatrix=[1.1814|0.4236,1.1983|0.5017,0.3849,1.2112] units=mi
new object=linecode.mtx603 nphases=2 basefreq=60 rmatrix=[1.3238|0.2066,1.3294] xmatrix=[1.3569|0.4591,1.3471] units=mi
new object=linecode.mtx604 nphases=2 basefreq=60 rmatrix=[1.3238|0.2066,1.3294] xmatrix=[1.3569|0.4591,1.3471] units=mi
new object=linecode.mtx605 nphases=1 basefreq=60 rmatrix=[1.3292] xmatrix=[1.3475] units=mi
new object=linecode.mtx606 nphases=3 units=mi rmatrix=[0.791721|0.318476,0.781649|0.28345,0.318476,0.791721] xmatrix=[0.438352|0.0276838,0.396697|-0.0184204,0.0276838,0.438352] cmatrix=[383.948|0,383.948|0,0,383.948]
new object=linecode.mtx607 nphases=1 basefreq=60 rmatrix=[1.3425] xmatrix=[0.5124] cmatrix=[236] units=mi
new object=loadshape.solar_670_shape npts=8760 interval=1 useactual=no mult=[0.0,0.0,0.0,0.0,0.0,0.0,0.0,0.0,0.0117780025643707,0.0357110200228421,0.0504097452958068,0.1549042474547242,0.0355223817583522,0.0830114043455651,0.1241871216551152,0.1337038428388568,0.0668048939529309,0.0044285078282634,0.0,0.0,0.0,0.0,0.0,0.0,0.0,0.0,0.0,0.0,0.0,0.0,0.0,0.0,0.0309054998648488,0.0784885773850567,0.1098651445126304,0.0043341886960184,0.2358424802856501,0.0843305512007446,0.3062280666736397,0.2105905801712492,0.1111842913678099,0.0095167211837415,0.0,0.0,0.0,0.0,0.0,0.0,0.0,0.0,0.0,0.0,0.0,0.0,0.0,0.0,0.0906435922791573,0.2113446048307089,0.2807883208924989,0.1190048533666421,0.2116270338289438,0.211061647433974,0.1724299047025379,0.1497219791662511,0.0785828965173017,0.0062187219461677,0.0,0.0,0.0,0.0,0.0,0.0,0.0,0.0,0.0,0.0,0.0,0.0,0.0,0.0,0.1379439766018803,0.3160272168556162,0.4486948702360284,0.5267525386443582,0.518089445237321,0.4337993165218243,0.4071574641532475,0.3696411706552518,0.2014508713172374,0.0395741414561357,0.0,0.0,0.0,0.0,0.0,0.0,0.0,0.0,0.0,0.0,0.0,0.0,0.0,0.0,0.150004672363736,0.3346849678896194,0.4709325211073404,0.5534710087954308,0.5521711484855002,0.5094263518302838,0.4387556944515595,0.3752950346049498,0.2033354045673868,0.0386317427314361,0.0,0.0,0.0,0.0,0.0,0.0,0.0,0.0,0.0,0.0,0.0,0.0,0.0,0.0,0.1185337861039173,0.2806932091625039,0.4400264928439916,0.394327948573933,0.4457728265311845,0.4598123746754345,0.4616036455903388,0.350230451758789,0.1895788138198717,0.0354283268253572,0.0,0.0,0.0,0.0,0.0,0.0,0.0,0.0,0.0,0.0,0.0,0.0,0.0,0.0,0.1203240002218216,0.1194759206293669,0.4269301360221912,0.4514108385258833,0.4194189513450925,0.312510724838304,0.3044658576762339,0.1809101722285848,0.0955431673701455,0.0101761625117063,0.0,0.0,0.0,0.0,0.0,0.0,0.0,0.0,0.0,0.0,0.0,0.0,0.0,0.0,0.1224912266694559,0.2855941052497421,0.0753792164119728,0.0993119696711942,0.2222745278026249,0.2575142163634923,0.210967592500979,0.1367191488789458,0.0725525486363738,0.0083859483938019,0.0,0.0,0.0,0.0,0.0,0.0,0.0,0.0,0.0,0.0,0.0,0.0,0.0,0.0,0.1258832808400246,0.288983781627061,0.1549042474547242,0.3295013786048964,0.2580796027584621,0.1205123742870616,0.1545274993242443,0.1292753350105934,0.0669932680181708,0.0316592603250586,0.0,0.0,0.0,0.0,0.0,0.0,0.0,0.0,0.0,0.0,0.0,0.0,0.0,0.0,0.058324626426884,0.1441626985480481,0.2322623162490913,0.3980954298787317,0.2310372243269068,0.3017049755138814,0.3064156481411297,0.2472437347195409,0.1379439766018803,0.0242154464567062,0.0,0.0,0.0,0.0,0.0,0.0,0.0,0.0,0.0,0.0,0.0,0.0,0.0,0.0,0.1518892056138853,0.336190903614539,0.4705547161798606,0.5477907249207343,0.5490905852306649,0.4796273184243759,0.4593209640704607,0.3871655069068156,0.2298123966039722,0.0566287314412246,0.0,0.0,0.0,0.0,0.0,0.0,0.0,0.0,0.0,0.0,0.0,0.0,0.0,0.0,0.1402995771147545,0.3186665673629753,0.447186292518609,0.5325226502640499,0.5138807511850458,0.4402008643489822,0.393168113866495,0.3774614684548341,0.2244414900510092,0.0557806518487699,0.0,0.0,0.0,0.0,0.0,0.0,0.0,0.0,0.0,0.0,0.0,0.0,0.0,0.0,0.1372842710746656,0.3150840255331666,0.4437015044112952,0.4093080460481327,0.4543487341857264,0.4131732810754261,0.3728432655650808,0.297464577551608,0.1764816644003214,0.0426835024292196,0.0,0.0,0.0,0.0,0.0,0.0,0.0,0.0,0.0,0.0,0.0,0.0,0.0,0.0,0.0571938536369444,0.1354940569567612,0.2455478397338815,0.3130127034132773,0.3586161359533409,0.3291235736774165,0.1946667629760999,0.1584846756905329,0.0894185003569728,0.0146046703399697,0.0,0.0,0.0,0.0,0.0,0.0,0.0,0.0,0.0,0.0,0.0,0.0,0.0,0.0,0.0301517394046391,0.0809384970301758,0.3759528907374147,0.4152419612028157,0.4216514350074732,0.3102069073784272,0.3143548356032055,0.3153323728281533,0.2183170872370864,0.0552152654538001,0.0,0.0,0.0,0.0,0.0,0.0,0.0,0.0,0.0,0.0,0.0,0.0,0.0,0.0,0.12484682718233,0.2901145544170006,0.4037255158959309,0.3460851655265104,0.4067638072707686,0.3413718509067622,0.3102623892209242,0.1462356058634373,0.0818806315556255,0.0147930444052096,0.0,0.0,0.0,0.0,0.0,0.0,0.0,0.0,0.0,0.0,0.0,0.0,0.0,0.0,0.1290869609453535,0.3104684646359132,0.4532179613957868,0.5523402360054912,0.5538699496629095,0.5068636191054208,0.4341929734043032,0.3903702438091444,0.2285873046817877,0.0595494541498185,0.0,0.0,0.0,0.0,0.0,0.0,0.0,0.0,0.0,0.0,0.0,0.0,0.0,0.0,0.1409590184427192,0.3175357945730356,0.4594372117404545,0.5441421332784292,0.5466203222432967,0.5076350809153796,0.4334717094518417,0.3960241077588424,0.2326390643795712,0.0614339873999678,0.0,0.0,0.0,0.0,0.0,0.0,0.0,0.0,0.0,0.0,0.0,0.0,0.0,0.0,0.1486855255085565,0.33336397163969,0.4675402027375216,0.5474419819107529,0.5598540626750897,0.5063695665079472,0.4425733736138555,0.397247350286277,0.244417066943942,0.0669932680181708,0.0,0.0,0.0,0.0,0.0,0.0,0.0,0.0,0.0,0.0,0.0,0.0,0.0,0.0,0.1459529126659524,0.3255436738401078,0.4551968137781811,0.5330246288390231,0.5621393861874677,0.5452755480608686,0.48610284204153,0.383302913872022,0.2322620520498413,0.0624704410576625,0.0,0.0,0.0,0.0,0.0,0.0,0.0,0.0,0.0,0.0,0.0,0.0,0.0,0.0,0.0375952890737414,0.0941297013827211,0.1425608584953837,0.0814095642929007,0.23603111855014,0.0629415083203873,0.0656741211629913,0.0009421345254496,0.0,0.0,0.0,0.0,0.0,0.0,0.0,0.0,0.0,0.0,0.0,0.0,0.0,0.0,0.0,0.0,0.0346743021658975,0.1018562084485583,0.2878556508296213,0.3074539511935742,0.4325998519268884,0.4353739440517402,0.2683498202031634,0.2328274384448111,0.1354000020237662,0.0300574202723941,0.0,0.0,0.0,0.0,0.0,0.0,0.0,0.0,0.0,0.0,0.0,0.0,0.0,0.0,0.0391971291264058,0.1016675701840684,0.1181567737741874,0.2940722591817891,0.5712674702744801,0.5857403051887068,0.5444274684684139,0.4297570679970402,0.2593044304813966,0.0734946831618235,0.0,0.0,0.0,0.0,0.0,0.0,0.0,0.0,0.0,0.0,0.0,0.0,0.0,0.0,0.155469633849694,0.3423150422292118,0.4770566597220133,0.5578065184876991,0.5715395955019654,0.5490588813206665,0.4625468369127884,0.4097809627056074,0.2566661367710376,0.0751908423467329,0.0,0.0,0.0,0.0,0.0,0.0,0.0,0.0,0.0,0.0,0.0,0.0,0.0,0.0,0.1481201391135866,0.3271447212950222,0.4551017020481862,0.533402433766503,0.5655317045572865,0.550078690425612,0.4939231398411121,0.3941377251139432,0.2463956551270863,0.0726466035693688,0.0,0.0,0.0,0.0,0.0,0.0,0.0,0.0,0.0,0.0,0.0,0.0,0.0,0.0,0.0982755160134996,0.2252895696434639,0.2596814428111265,0.3854693477219063,0.4315456969194446,0.4135484440104061,0.3765182771323845,0.2769257278577052,0.1696032369269389,0.0484311571126625,0.0,0.0,0.0,0.0,0.0,0.0,0.0,0.0,0.0,0.0,0.0,0.0,0.0,0.0,0.1168378911182579,0.2729680230929167,0.2644872271683697,0.4912837893337531,0.5183272245623084,0.3760480024674096,0.0522002236129612,0.3655883541604684,0.2159612225249622,0.0607745460720031,0.0,0.0,0.0,0.0,0.0,0.0,0.0,0.0,0.0,0.0,0.0,0.0,0.0,0.0,0.033072726312483,0.0532366772706558,0.0802787915029611,0.1240930667221203,0.0979930870152647,0.0680297216758655,0.0689718562013151,0.0267596852340703,0.013756590747515,0.0002826931974848,0.0,0.0,0.0,0.0,0.0,0.0,0.0,0.0,0.0,0.0,0.0,0.0,0.0,0.0,0.1556580079149339,0.3392054170568779,0.3742118176800077,0.3703228047202155,0.2768966659402068,0.2769283698502051,0.2799693032175426,0.2806562212675059,0.2573258422982524,0.0815038834251456,0.0,0.0,0.0,0.0,0.0,0.0,0.0,0.0,0.0,0.0,0.0,0.0,0.0,0.0,0.1478374459161017,0.3268620280975374,0.4573632476280654,0.5357564490838772,0.5456084391158508,0.5044171340505516,0.4363752592091866,0.3218686622728041,0.2141712726063079,0.0809384970301758,0.0,0.0,0.0,0.0,0.0,0.0,0.0,0.0,0.0,0.0,0.0,0.0,0.0,0.0,0.0461698757320333,0.141618723969934,0.2411193319056182,0.2440400546142121,0.313953252743227,0.2965240282216582,0.2676893220781987,0.1925938556607106,0.1181567737741874,0.0339205417056877,0.0,0.0,0.0,0.0,0.0,0.0,0.0,0.0,0.0,0.0,0.0,0.0,0.0,0.0,0.1555639529819389,0.3419398792942318,0.4845942643241105,0.5610165393750277,0.5550139324153484,0.4711967203573263,0.44698021710362,0.4288138766745906,0.2670314659457338,0.0891358071594879,0.0,0.0,0.0,0.0,0.0,0.0,0.0,0.0,0.0,0.0,0.0,0.0,0.0,0.0,0.1561290751776588,0.3328936969747151,0.4617912270578288,0.5411276198360901,0.5613679243775089,0.535349582238899,0.442974956473834,0.413831137207891,0.2669363542157389,0.0908319663443973,0.0,0.0,0.0,0.0,0.0,0.0,0.0,0.0,0.0,0.0,0.0,0.0,0.0,0.0,0.1549985665869692,0.1344576032990666,0.3153667187306515,0.3918788215265638,0.447186292518609,0.4380476404615973,0.3773663567248391,0.108074930394726,0.0781115650553268,0.0515405180857464,0.0,0.0,0.0,0.0,0.0,0.0,0.0,0.0,0.0,0.0,0.0,0.0,0.0,0.0,0.0,0.1197586138268518,0.3229043233327488,0.4522800540583369,0.4403223960039757,0.4048140168058728,0.309517347335964,0.2890656833945566,0.2772057790626903,0.0975217555532899,0.0,0.0,0.0,0.0,0.0,0.0,0.0,0.0,0.0,0.0,0.0,0.0,0.0,0.0,0.1119380518280197,0.2985028806040524,0.3638076512155636,0.3732765523350577,0.2684607838881575,0.247861168366758,0.2477332959297648,0.2499737055696451,0.1669649432165799,0.0812211902276607,0.0,0.0,0.0,0.0,0.0,0.0,0.0,0.0,0.0,0.0,0.0,0.0,0.0,0.0,0.0823516988183503,0.1092997581176606,0.0823516988183503,0.1240930667221203,0.0821633247531104,0.3430706520841714,0.3124473170183074,0.2267970905638833,0.0787712705825416,0.010835868038921,0.0,0.0,0.0,0.0,0.0,0.0,0.0,0.0,0.0,0.0,0.0,0.0,0.0,0.0,0.0061246670131727,0.0395741414561357,0.0619050546626927,0.2215205031431652,0.266653661018254,0.1241871216551152,0.1798737185708902,0.0783942582528117,0.0475830775202078,0.0896071386214627,0.0,0.0,0.0,0.0,0.0,0.0,0.0,0.0,0.0,0.0,0.0,0.0,0.0,0.0,0.0390087550611659,0.0371242218110166,0.1439743244828081,0.2820115634199335,0.2586449891534318,0.3235648214577135,0.3536227701286077,0.4264572193647165,0.2756998433377707,0.0989352215407143,0.0,0.0,0.0,0.0,0.0,0.0,0.0,0.0,0.0,0.0,0.0,0.0,0.0,0.0,0.0312822479953287,0.0794307119105064,0.1485912063763115,0.5357168191963794,0.2076695932634052,0.2065390846727156,0.2344292784974756,0.1763873452680765,0.0043341886960184,0.0919627391343368,0.0,0.0,0.0,0.0,0.0,0.0,0.0,0.0,0.0,0.0,0.0,0.0,0.0,0.0,0.0500329971653269,0.2223685827356199,0.480636559559322,0.5339757461389723,0.528123732751785,0.4184414141201447,0.4169169844477262,0.4179843494176691,0.2886086186920811,0.1088286908549358,0.0,0.0,0.0,0.0,0.0,0.0,0.0,0.0,0.0,0.0,0.0,0.0,0.0,0.0159238171951492,0.1834541468066989,0.3661537405554382,0.4552364436656789,0.4619523886003202,0.363538167980578,0.3215252032478225,0.3141566861657161,0.2956336767492057,0.2985002386115526,0.1143879714731388,0.0,0.0,0.0,0.0,0.0,0.0,0.0,0.0,0.0,0.0,0.0,0.0,0.0,0.0162065103926341,0.1768584125308013,0.349160444796346,0.3575725489158967,0.3293560690174041,0.2511475428373324,0.2513485984665717,0.25362599600145,0.25530973782161,0.2547446156258903,0.110901598170325,0.0,0.0,0.0,0.0,0.0,0.0,0.0,0.0,0.0,0.0,0.0,0.0,0.0,0.0204466441556576,0.185904066451818,0.3662488522854331,0.5098464286377614,0.542086663113539,0.5138939611475452,0.4169301944102254,0.4166342912502413,0.3681325929378325,0.2906799408119704,0.0627531342551474,0.0,0.0,0.0,0.0,0.0,0.0,0.0,0.0,0.0,0.0,0.0,0.0,0.0,0.0003770123297298,0.1032694102367328,0.2364081308798698,0.3341195814946496,0.380383512159678,0.4489775634335133,0.4751729190696138,0.3160272168556162,0.2779613889176499,0.1970223634889741,0.0668048939529309,0.0,0.0,0.0,0.0,0.0,0.0,0.0,0.0,0.0,0.0,0.0,0.0,0.0,0.0045228269605083,0.1663995568216101,0.3336466648371748,0.4675402027375216,0.5491381410956623,0.550284765840601,0.5180471733573233,0.4309935204869741,0.4231600127248927,0.2707989472505325,0.1046828762241573,0.0,0.0,0.0,0.0,0.0,0.0,0.0,0.0,0.0,0.0,0.0,0.0,0.0,0.0,0.024780832851676,0.0351456336278723,0.1114669845652948,0.1559407011124188,0.1663052376893651,0.2013568163842425,0.1282388813528988,0.1112786105000549,0.1184394669716723,0.0440026492843991,0.0,0.0,0.0,0.0,0.0,0.0,0.0,0.0,0.0,0.0,0.0,0.0,0.0,0.0,0.002732612842604,0.1215490921440062,0.2162441799216971,0.2799402413000442,0.4233475941923826,0.4837461847316558,0.3784971295147787,0.4681980588699865,0.1766700384655614,0.0604918528745182,0.0,0.0,0.0,0.0,0.0,0.0,0.0,0.0,0.0,0.0,0.0,0.0,0.0,0.0198812577606878,0.0617166805974527,0.1330444015108921,0.2345235976297205,0.3246004825176581,0.483423861646673,0.4900552628213187,0.4431863158738228,0.3291975494674126,0.3062280666736397,0.1235276803271505,0.0,0.0,0.0,0.0,0.0,0.0,0.0,0.0,0.0,0.0,0.0,0.0,0.0,0.0254405383788908,0.188730734227417,0.3650229677654986,0.4035722803309391,0.3978999224337421,0.2970762046541287,0.2970867726241281,0.3040986207187535,0.3058344097911608,0.2965240282216582,0.1202299452888267,0.0,0.0,0.0,0.0,0.0,0.0,0.0,0.0,0.0,0.0,0.0,0.0,0.0,0.0231789927990116,0.0717987881761641,0.3003866212564518,0.3630441153831044,0.4221824754999449,0.4092129343181378,0.3073165675835816,0.3059321635136556,0.3087564534960047,0.2943549523792741,0.1142936523408938,0.0,0.0,0.0,0.0,0.0,0.0,0.0,0.0,0.0,0.0,0.0,0.0,0.0,0.0102704816439513,0.0381606754687112,0.1877883355027174,0.1766700384655614,0.2439459996812172,0.3348725493571094,0.2730604928304117,0.3483467111063895,0.1716761442423282,0.0535191062688907,9.4319132244961e-05,0.0,0.0,0.0,0.0,0.0,0.0,0.0,0.0,0.0,0.0,0.0,0.0,0.0,0.0,0.0048995750909882,0.0024499196451191,0.0294920338774243,0.1912747088055311,0.1327617083134072,0.3063231784036347,0.3323283105797453,0.2200129822227458,0.0241213915237113,0.1130688246179593,0.0,0.0,0.0,0.0,0.0,0.0,0.0,0.0,0.0,0.0,0.0,0.0,0.0,0.0340148608379327,0.2131348189486132,0.4034666006309448,0.5404697637036254,0.6047864291201893,0.5937825303582771,0.494541366086079,0.4643116879026941,0.4646049490701784,0.3209281129428544,0.1356824310220011,0.0,0.0,0.0,0.0,0.0,0.0,0.0,0.0,0.0,0.0,0.0,0.0,0.0,0.035993449021077,0.2089887401185848,0.3842461051944716,0.5093735119802867,0.5853202283812292,0.5921418530158647,0.5299652015241866,0.4760157146770688,0.4541585107257365,0.310846269563393,0.1308771750632578,0.0,0.0,0.0,0.0,0.0,0.0,0.0,0.0,0.0,0.0,0.0,0.0,0.0,0.0239330174584713,0.1892018014901419,0.2968067214191431,0.4099685441730974,0.497312816218431,0.4975981514084158,0.4604438108829007,0.2984077688740575,0.2090830592508297,0.2866297663096868,0.1256005876425397,0.0,0.0,0.0,0.0,0.0,0.0,0.0,0.0,0.0,0.0,0.0,0.0,0.0,0.01366253581452,0.1163665596562831,0.2614716569290309,0.3121646238208226,0.3642515059555398,0.3399451749568384,0.2504836101221179,0.2545525427711505,0.1719588374398131,0.0538017994663756,0.0533307322036508,0.0,0.0,0.0,0.0,0.0,0.0,0.0,0.0,0.0,0.0,0.0,0.0,0.0,0.0292093406799394,0.1432205640225984,0.1929708679904405,0.3197022284229199,0.4439841976087801,0.4378600589941073,0.4029012142359749,0.3488169857713644,0.3373216764044786,0.1957975357660395,0.0454158510725736,0.0,0.0,0.0,0.0,0.0,0.0,0.0,0.0,0.0,0.0,0.0,0.0,0.0,0.0155470690646693,0.0862150844508939,0.2272681578266082,0.2345235976297205,0.2935068727868194,0.3572026699659164,0.4147743285303407,0.3661537405554382,0.3243204313126731,0.2351830389576853,0.0730236158990987,0.0,0.0,0.0,0.0,0.0,0.0,0.0,0.0,0.0,0.0,0.0,0.0,0.0,0.0420237969020048,0.2123807942891535,0.3808537868246529,0.5014607444432094,0.5451672263683743,0.5309057508541364,0.4240556481823448,0.4271705573396783,0.4305311717994988,0.2839904158023278,0.1233393062619105,0.0,0.0,0.0,0.0,0.0,0.0,0.0,0.0,0.0,0.0,0.0,0.0,0.0,0.0459812374675434,0.2275508510240931,0.4104388188380722,0.5424486160860196,0.562152596149967,0.5241158301294991,0.4401638764539842,0.4420846050013816,0.4365073588341795,0.3066058716011196,0.147178004588137,0.0,0.0,0.0,0.0,0.0,0.0,0.0,0.0,0.0,0.0,0.0,0.0,0.0,0.0447564097446088,0.2080466055931351,0.3550362361160321,0.5433891654159694,0.5808129891764701,0.5582054593551778,0.4655639923476272,0.4703301468173726,0.4325813579793893,0.2880432322971112,0.1238103735246354,0.0,0.0,0.0,0.0,0.0,0.0,0.0,0.0,0.0,0.0,0.0,0.0,0.0,0.0475830775202078,0.0212947237481123,0.4159975710577753,0.1822293190837643,0.2231223431958297,0.3077366443910591,0.5141845803225297,0.5048002229630311,0.4465416463486435,0.3254485621101128,0.1466126181931672,0.0,0.0,0.0,0.0,0.0,0.0,0.0,0.0,0.0,0.0,0.0,0.0,0.0,0.052671290875686,0.2343349593652306,0.3959633419313456,0.4203330807500437,0.3992367706386707,0.3215410552028216,0.3176176963405313,0.3179135995005154,0.309984980008439,0.3101382155734309,0.147178004588137,0.0,0.0,0.0,0.0,0.0,0.0,0.0,0.0,0.0,0.0,0.0,0.0,0.0,0.0558747067817648,0.2477148019822658,0.4282484902796208,0.5602556455350683,0.5733387923943694,0.5311356042016241,0.449920754755963,0.4476301472585853,0.4485865485435342,0.3353428240220842,0.1535851005995447,0.0078205619988321,0.0,0.0,0.0,0.0,0.0,0.0,0.0,0.0,0.0,0.0,0.0,0.0,0.0565344123089796,0.241684454101338,0.4199552758225638,0.5432966956784743,0.5640204848473672,0.528348302114273,0.4400899006639882,0.4422669024838719,0.4420978149638809,0.3142359459407119,0.141524404837689,0.005370642353713,0.0,0.0,0.0,0.0,0.0,0.0,0.0,0.0,0.0,0.0,0.0,0.0,0.0555922777835299,0.2172806335793917,0.4114771218905168,0.5371699150713017,0.5653996049322936,0.5338304365514801,0.4419709993238876,0.4467054498836347,0.4450198586687248,0.308019337588544,0.1381323506671202,0.0048055201579932,0.0,0.0,0.0,0.0,0.0,0.0,0.0,0.0,0.0,0.0,0.0,0.0,0.058324626426884,0.2386694122604991,0.4093080460481327,0.5345332065564425,0.5662291905772492,0.5479730224032245,0.4552020977631808,0.4599841041879253,0.4627951842077751,0.3228118535952537,0.147178004588137,0.0084802675260469,0.0,0.0,0.0,0.0,0.0,0.0,0.0,0.0,0.0,0.0,0.0,0.0,0.0530480390061659,0.2051256186852911,0.4092155763106376,0.4761134683995636,0.5471064488632708,0.524623092689472,0.439400340621525,0.4178918796801741,0.4218258065124639,0.2320736779846014,0.141618723969934,0.0071611206708674,0.0,0.0,0.0,0.0,0.0,0.0,0.0,0.0,0.0,0.0,0.0,0.0,0.0593610800845786,0.2321679971168464,0.3146137508681917,0.3641748881730439,0.3868828137093307,0.4553447653581732,0.4580316717305296,0.3335964669796776,0.3139215488332287,0.3034011346987908,0.1400168839172696,0.0064073602106576,0.0,0.0,0.0,0.0,0.0,0.0,0.0,0.0,0.0,0.0,0.0,0.0,0.0505983835602967,0.1815696135565496,0.350135340028794,0.3928801366840103,0.3900030068516641,0.2799032534050462,0.2843708627223074,0.2872136466521556,0.2916918239394163,0.2831027063223752,0.1419954721004138,0.0080089360640721,0.0,0.0,0.0,0.0,0.0,0.0,0.0,0.0,0.0,0.0,0.0,0.0,0.044285342481884,0.158107927560053,0.1585789948227779,0.0901722608171825,0.2428152268912776,0.3293137971374064,0.6059806097301255,0.5574287135602194,0.4630171115777632,0.3230945467927387,0.1452934713379876,0.0104588557091912,0.0,0.0,0.0,0.0,0.0,0.0,0.0,0.0,0.0,0.0,0.0,0.0,0.0685007889385903,0.2486572007069654,0.4150570217278255,0.4024309395710001,0.5714074958769725,0.5724959967869143,0.533140876509017,0.4558916578056439,0.4713843018248163,0.3309148445923208,0.1512295000866705,0.0123433889593405,0.0,0.0,0.0,0.0,0.0,0.0,0.0,0.0,0.0,0.0,0.0,0.0,0.0715160949786792,0.2480918143119957,0.4067638072707686,0.5184196942998034,0.5068768290679201,0.4600131661054238,0.3951152623388909,0.3993847222186629,0.4112551945205286,0.3173455711130458,0.1508527519561907,0.0122490698270955,0.0,0.0,0.0,0.0,0.0,0.0,0.0,0.0,0.0,0.0,0.0,0.0,0.0705736962539795,0.2434749324184923,0.3559794274384818,0.3855644594519011,0.494393414506087,0.5288265027567474,0.4926972553211776,0.4271388534296801,0.4088377713831578,0.2008854849222676,0.0962969278303553,0.0048055201579932,0.0,0.0,0.0,0.0,0.0,0.0,0.0,0.0,0.0,0.0,0.0,0.0,0.0097994143812264,0.0408932883113152,0.0646376675052967,0.1218315211422411,0.0652971088332615,0.0433429437571844,0.1486855255085565,0.2059736982777458,0.0156411239976643,0.116555197920773,0.055309584586045,9.4319132244961e-05,0.0,0.0,0.0,0.0,0.0,0.0,0.0,0.0,0.0,0.0,0.0,0.0,0.0390087550611659,0.1213604538795163,0.194195695713375,0.1819466258862795,0.2723075249679519,0.2215205031431652,0.2083292987906199,0.2274567960910981,0.2191649026302911,0.0676527093461356,0.0312822479953287,0.0,0.0,0.0,0.0,0.0,0.0,0.0,0.0,0.0,0.0,0.0,0.0,0.0,0.0115896284991308,0.0490905984406273,0.183265772741459,0.2654304184908194,0.3647270646055144,0.3624021112056386,0.2935147987643189,0.2362622928938776,0.2389087767809863,0.1970223634889741,0.0946007686454459,0.0056533355511979,0.0,0.0,0.0,0.0,0.0,0.0,0.0,0.0,0.0,0.0,0.0,0.0,0.0837651648057748,0.0909262854766422,0.2792797431750795,0.4430410062863305,0.5068530511354213,0.5190775504322682,0.4322511089169069,0.396647617988809,0.408441472508179,0.1837368400041838,0.0927164995945466,0.0076321879335922,0.0,0.0,0.0,0.0,0.0,0.0,0.0,0.0,0.0,0.0,0.0,0.0,0.099877356066164,0.3023654736388461,0.4789404003744126,0.534916295468922,0.5289216144867424,0.4287821727645923,0.4253555084922754,0.4336592909193317,0.4441955570087688,0.3623862592506395,0.1696032369269389,0.0184677917732633,0.0,0.0,0.0,0.0,0.0,0.0,0.0,0.0,0.0,0.0,0.0,0.0,0.0986525283432294,0.2915280204044251,0.4553843952456711,0.5530879198829513,0.5443957645584157,0.4790804259769051,0.4351071028092544,0.4405998052164609,0.4546393533607109,0.3364735968120239,0.1634785699137661,0.0176199763800586,0.0,0.0,0.0,0.0,0.0,0.0,0.0,0.0,0.0,0.0,0.0,0.0,0.0974277006202949,0.283332559669863,0.4408745724364463,0.5495661438806394,0.5393654108386844,0.3535276583986127,0.5605251287700539,0.4605283546428962,0.4546604893007098,0.3414669626367571,0.1673419555463097,0.0210120305506274,0.0,0.0,0.0,0.0,0.0,0.0,0.0,0.0,0.0,0.0,0.0,0.0,0.0960142346328704,0.2783365518526298,0.4380476404615973,0.5512094632155516,0.2961462232941784,0.5041925646880635,0.5134263284750702,0.3862249575768658,0.2466783483245712,0.1919344143327458,0.0946950877776909,0.0089513347887717,0.0,0.0,0.0,0.0,0.0,0.0,0.0,0.0,0.0,0.0,0.0,0.0,0.0106472297744311,0.0235560051287415,0.0258172865093707,0.0874399121738285,0.194384069778615,0.266558549288259,0.3428804286241816,0.2705162540530476,0.2676893220781987,0.1269197344977193,0.063695532979847,0.0040517596977835,0.0,0.0,0.0,0.0,0.0,0.0,0.0,0.0,0.0,0.0,0.0,0.0,0.0041458146307785,0.0178083504452985,0.0667105748206859,0.1035521034342177,0.1072268508022714,0.1145763455383787,0.0787712705825416,0.0889474330942479,0.0766040441349074,0.0418354228367649,0.019315871365718,0.0,0.0,0.0,0.0,0.0,0.0,0.0,0.0,0.0,0.0,0.0,0.0,0.0,0.0017902141179043,0.0016961591849093,0.0298690462071542,0.0503156903628118,0.0892301262917328,0.0640722811103269,0.0765099892019124,0.0459812374675434,0.0938470081852362,0.077734816924847,0.0375952890737414,0.0009421345254496,0.0,0.0,0.0,0.0,0.0,0.0,0.0,0.0,0.0,0.0,0.0,0.0,0.1020445825137982,0.2784316635826247,0.4287187649445957,0.5340629318914677,0.3353428240220842,0.2903047778769904,0.3890518895517149,0.30566268027867,0.4837461847316558,0.1593327552829876,0.1644209686384658,0.022048484208322,0.0,0.0,0.0,0.0,0.0,0.0,0.0,0.0,0.0,0.0,0.0,0.0,0.0283615252867347,0.1392631234570598,0.2799402413000442,0.3209281129428544,0.2801278227675342,0.305567568548675,0.3591815223483107,0.3083020307860289,0.4134559742729111,0.2366905598781048,0.1213604538795163,0.0168662159198489,0.0,0.0,0.0,0.0,0.0,0.0,0.0,0.0,0.0,0.0,0.0,0.0,0.1130688246179593,0.2952030319717287,0.4037492938284296,0.4732865364247147,0.5530958458604508,0.5788182848390766,0.55573255437531,0.4993445084508225,0.4127954761479464,0.2430979200887624,0.1238103735246354,0.0180910436427834,0.0,0.0,0.0,0.0,0.0,0.0,0.0,0.0,0.0,0.0,0.0,0.0,0.1093940772499056,0.2535567757979537,0.3201725030878947,0.3602171834082554,0.3778392733823139,0.4202379690200487,0.5077724645253723,0.4313581154519547,0.2491282679696903,0.1375669642721504,0.0683124148733504,0.0072551756038623,0.0,0.0,0.0,0.0,0.0,0.0,0.0,0.0,0.0,0.0,0.0,0.0,0.0539904377308655,0.1313482423259827,0.2078582315278951,0.4990776672083367,0.4951437403760469,0.4631888410902541,0.3723624229301066,0.362058652180657,0.3751285890774587,0.3296889600723864,0.0788655897147866,0.0231789927990116,0.0,0.0,0.0,0.0,0.0,0.0,0.0,0.0,0.0,0.0,0.0,0.0,0.1135398918806841,0.2835201411373529,0.2627908037842104,0.366626657212913,0.4532126774107871,0.4553236294181743,0.3674694528203679,0.3348144255221125,0.3367774259495076,0.3229043233327488,0.0940356464497261,0.0134741617492801,0.0,0.0,0.0,0.0,0.0,0.0,0.0,0.0,0.0,0.0,0.0,0.0,0.019315871365718,0.0980871419482597,0.1712991319125983,0.1866578269120278,0.274946875475311,0.3966819638913073,0.4347504338217734,0.4220292399349531,0.4784701257094377,0.2251011955782239,0.0732119899643386,0.0096107761167365,0.0,0.0,0.0,0.0,0.0,0.0,0.0,0.0,0.0,0.0,0.0,0.0,0.1271081085629592,0.3183838741654903,0.4796008984993773,0.591727060193387,0.5959648161631605,0.551949221115512,0.4846101162791096,0.4790302281194078,0.4917804839237266,0.3602171834082554,0.1793083321759204,0.0267596852340703,0.0,0.0,0.0,0.0,0.0,0.0,0.0,0.0,0.0,0.0,0.0,0.0013191468551795,0.1298407214055632,0.3096203850434585,0.4651835454276475,0.5582767931526741,0.5892594391985189,0.5872013270411288,0.469030286507442,0.4644094416251889,0.4753340806121053,0.3410917997017771,0.1737490515577174,0.02770181975952,0.0,0.0,0.0,0.0,0.0,0.0,0.0,0.0,0.0,0.0,0.0,0.0048055201579932,0.135965124219486,0.3190417302979552,0.4717806006997951,0.533159370456516,0.5247208464119667,0.428224712347122,0.4165550314752455,0.4223436370424362,0.4373845003441327,0.3532449652011278,0.1814752944243046,0.0294920338774243,0.0,0.0,0.0,0.0,0.0,0.0,0.0,0.0,0.0,0.0,0.0,0.0034863733028137,0.1173089583809827,0.2264203424334034,0.341749655834242,0.3842461051944716,0.4779972090519629,0.4105339305680672,0.538866074256211,0.2924712117268747,0.3057577920086649,0.3339293580346598,0.163667208178256,0.0266653661018254,0.0,0.0,0.0,0.0,0.0,0.0,0.0,0.0,0.0,0.0,0.0,0.0,0.1085459976574509,0.1675303296115496,0.1558463819801739,0.172241530637298,0.2735334094878864,0.3567323953009416,0.2125694325536435,0.1992836448696032,0.2047488705548113,0.1271081085629592,0.0385376877984411,0.0157354431299093,0.0,0.0,0.0,0.0,0.0,0.0,0.0,0.0,0.0,0.0,0.0,0.0,0.0435315820216743,0.1301234146030481,0.1233393062619105,0.4246659484498122,0.4374796120741276,0.4051891797408528,0.3097551266609513,0.3150523216231683,0.3189809644704584,0.3130602592782747,0.18043884076661,0.0295863530096693,0.0,0.0,0.0,0.0,0.0,0.0,0.0,0.0,0.0,0.0,0.0,0.0106472297744311,0.1500987272967309,0.3458949420665205,0.5171964517723687,0.5568448332177506,0.5364460091263403,0.4488745257260189,0.4510541695384024,0.4510937994259003,0.4558520279181461,0.272212413237957,0.1488738995737964,0.0318476343902985,0.0,0.0,0.0,0.0,0.0,0.0,0.0,0.0,0.0,0.0,0.0,0.0111185612364059,0.1505700587587057,0.3399610269118375,0.4994818920608151,0.5773968928741525,0.569433927479578,0.4832257122091836,0.4575138412005573,0.4578150283455412,0.4681478610124892,0.3544708497210624,0.1841135881346637,0.0326957139827532,0.0,0.0,0.0,0.0,0.0,0.0,0.0,0.0,0.0,0.0,0.0,0.0130971494195502,0.1548099283224792,0.3416571860967469,0.4905308214712934,0.5920097533908718,0.5884879773885601,0.5367577642413237,0.4809747345993039,0.4848161916940987,0.4946998856360706,0.3564497021034566,0.1843962813321486,0.0318476343902985,0.0,0.0,0.0,0.0,0.0,0.0,0.0,0.0,0.0,0.0,0.0,0.0140392839449999,0.1519832605468803,0.3365687085420188,0.4894000486813538,0.5926676095233367,0.5703374889145296,0.622815385939226,0.5035928323905955,0.5040868849880692,0.5057011424054829,0.3531524954636328,0.183171453609214,0.0322246467200284,0.0,0.0,0.0,0.0,0.0,0.0,0.0,0.0,0.0,0.0,0.0,0.0148873635374546,0.147178004588137,0.3245080127801631,0.3325158920472353,0.2984077688740575,0.3357206289495641,0.1509468068891856,0.4709325211073404,0.5875817739611084,0.4846893760541054,0.3439187316766261,0.1727125979000228,0.0327900331149981,0.0,0.0,0.0,0.0,0.0,0.0,0.0,0.0,0.0,0.0,0.0,0.0144162962747298,0.1428435516928685,0.2059736982777458,0.3680401232003374,0.5289004785467435,0.4894000486813538,0.5203457068322005,0.3955432651238681,0.3796675321922162,0.3850122830194307,0.3558843157084869,0.1815696135565496,0.033261100377723,0.0,0.0,0.0,0.0,0.0,0.0,0.0,0.0,0.0,0.0,0.0,0.0167718967876039,0.1453875262709826,0.3127300102157924,0.3724681026301009,0.4529273422208023,0.1989068967391233,0.4281533785496259,0.4042116425159049,0.3158000055006283,0.2640156315071449,0.1712991319125983,0.0800904174377211,0.0306228066673639,0.0,0.0,0.0,0.0,0.0,0.0,0.0,0.0,0.0,0.0,0.0,0.0140392839449999,0.0246867779186811,0.0992176505389492,0.1290869609453535,0.1596154484804725,0.3036838278962757,0.450108336223453,0.2671239356832289,0.2513895493503195,0.1517948864816403,0.1269197344977193,0.0765099892019124,0.033261100377723,0.0,0.0,0.0,0.0,0.0,0.0,0.0,0.0,0.0,0.0,0.0,0.0090453897217667,0.0519175304154763,0.33336397163969,0.3545659614510573,0.4219341282049581,0.4477516789135788,0.422311933132438,0.4752653888071089,0.4244783669823223,0.397342462016272,0.275134456942801,0.1773294797935261,0.036087768153322,0.0,0.0,0.0,0.0,0.0,0.0,0.0,0.0,0.0,0.0,0.0,0.0009421345254496,0.0087629607235318,0.0356167008905971,0.0549325722563152,0.0569114246387095,0.0908319663443973,0.1121266900925096,0.2614716569290309,0.230377782998942,0.1745971311501721,0.1129745054857143,0.0323187016530233,0.0,0.0,0.0,0.0,0.0,0.0,0.0,0.0,0.0,0.0,0.0,0.0,0.0228022446685317,0.1666822500190949,0.3487218740413695,0.4857250371140501,0.5814549933539358,0.5848473117237545,0.5332993960590084,0.4703829866673698,0.4735850815771987,0.4849086614315938,0.3580507495583711,0.1897671878851116,0.0367474736805367,0.0,0.0,0.0,0.0,0.0,0.0,0.0,0.0,0.0,0.0,0.0,0.024780832851676,0.1667765691513399,0.3381697559969333,0.4758307752020787,0.571846066631949,0.5211541565371574,0.5967283519956198,0.5007738263932462,0.4782825442419477,0.480636559559322,0.1079806112624811,0.1869405201095126,0.0382549946009562,0.0,0.0,0.0,0.0,0.0,0.0,0.0,0.0,0.0,0.0,0.0,0.0254405383788908,0.1723355855702929,0.3593691038158007,0.4763089758445532,0.4937249904036227,0.4313924613544528,0.3695619108802561,0.3654800324679741,0.3512264829312357,0.3586927537358368,0.3493083963763382,0.1612172885331369,0.0383490495339512,0.0,0.0,0.0,0.0,0.0,0.0,0.0,0.0,0.0,0.0,0.0,0.0267596852340703,0.1737490515577174,0.3588988291508258,0.4110174151955414,0.4231996426123905,0.3103548589584193,0.3146533807556896,0.3141751801132152,0.3169387042680675,0.3122438835958183,0.3015015420913923,0.1194759206293669,0.0391030741934109,0.0,0.0,0.0,0.0,0.0,0.0,0.0,0.0,0.0,0.0,0.0,0.0278901938247599,0.1744087570849322,0.3462727469940004,0.5008953580482397,0.589927863300983,0.5873889085086188,0.5177248502723405,0.4898941012788274,0.4877990012264393,0.3401486083793275,0.355506510781007,0.1879769737672073,0.0418354228367649,0.0,0.0,0.0,0.0,0.0,0.0,0.0,0.0,0.0,0.0,0.0,0.0293979789444294,0.1755392656756218,0.3474035197839399,0.4856299253840552,0.573156494911879,0.5649108363198195,0.4886338708563947,0.4516908897308684,0.4530224539507972,0.4619788085253187,0.3566372835709466,0.1940073216481351,0.0427778215614645,0.0,0.0,0.0,0.0,0.0,0.0,0.0,0.0,0.0,0.0,0.0,0.0300574202723941,0.1794023871089154,0.3512661128187336,0.5013656327132145,0.5583639789051694,0.54768240322824,0.4484121770385436,0.4394109085915245,0.4502615717884448,0.4541611527182364,0.3682277046678274,0.1937246284506502,0.0419297419690099,0.0,0.0,0.0,0.0,0.0,0.0,0.0,0.0,0.0,0.0,0.0,0.0158297622621542,0.0662395075579611,0.213888579408823,0.3657785776204583,0.4604728728003992,0.4914713708012431,0.5171964517723687,0.5726624423144054,0.503621894308094,0.4594636316654531,0.3419398792942318,0.1827003863464892,0.0408932883113152,0.0,0.0,0.0,0.0,0.0,0.0,0.0,0.0,0.0,0.0,0.0,0.0306228066673639,0.1190991724988871,0.258173657691457,0.3530573837336379,0.3349650190946044,0.5598751986150886,0.2968991911566381,0.5623296096474575,0.3634219203105842,0.3339293580346598,0.1949494561735848,0.1015735152510734,0.0326957139827532,0.0,0.0,0.0,0.0,0.0,0.0,0.0,0.0,0.0,0.0,0.0,0.0091397088540117,0.0587956936896088,0.2801278227675342,0.2071044710676854,0.4036568240909346,0.4693288316599261,0.4785625954469327,0.2300950898014571,0.2257606369061887,0.2261376492359186,0.1633845149807711,0.0929991927920315,0.02770181975952,0.0,0.0,0.0,0.0,0.0,0.0,0.0,0.0,0.0,0.0,0.0,0.0326013948505082,0.086120765318649,0.2484685624424755,0.3448592810065758,0.2283048756835528,0.4193370495775969,0.4196514466850801,0.3685975836178077,0.297181884354123,0.2456418946668765,0.172053156572058,0.0881936726340382,0.0292093406799394,0.0,0.0,0.0,0.0,0.0,0.0,0.0,0.0,0.0,0.0,0.0,0.0009421345254496,0.0877226053713134,0.0208233922861375,0.0320362726547884,0.1230566130644257,0.2483745075094805,0.3204551962853796,0.2533684017327138,0.2279278633538229,0.2593044304813966,0.2103078869737643,0.119287546564127,0.0342975540354176,0.0,0.0,0.0,0.0,0.0,0.0,0.0,0.0,0.0,0.0,0.0,0.0,0.105436636684367,0.1114669845652948,0.1068501026717915,0.4202379690200487,0.3545659614510573,0.20814092472538,0.2653353067608244,0.1732779842949926,0.1516065124164004,0.1419014171674189,0.036087768153322,0.0197869386284428,0.0,0.0,0.0,0.0,0.0,0.0,0.0,0.0,0.0,0.0,0.0,0.0093280829192516,0.0286442184842196,0.0708563894514645,0.2663709678207691,0.5970216131631041,0.589161685476024,0.5657985457997722,0.4836325790541619,0.4866048206165031,0.4937672622836205,0.3637046135080691,0.1988125776068784,0.0451334220743387,0.0,0.0,0.0,0.0,0.0,0.0,0.0,0.0,0.0,0.0,0.0,0.0365588354160468,0.1902382551478365,0.3593691038158007,0.4898703233463287,0.5806069137614811,0.5960467179306562,0.5523032481104931,0.4863459053515169,0.4871966269364715,0.4798835916968622,0.3516439177462134,0.1918400952005009,0.0427778215614645,0.0,0.0,0.0,0.0,0.0,0.0,0.0,0.0,0.0,0.0,0.0,0.0363704613508069,0.1880710287002023,0.3544708497210624,0.4816722206192667,0.5676056686696757,0.5765805171916961,0.5240339283620035,0.4734265620272072,0.4830909705916908,0.4780923207819579,0.3524919973386681,0.1941013765811301,0.044285342481884,0.0,0.0,0.0,0.0,0.0,0.0,0.0,0.0,0.0,0.0,0.0,0.0389144359289209,0.1897671878851116,0.3580507495583711,0.480824141026812,0.4961978953834906,0.4325628640318903,0.3679608634253417,0.3633479445205881,0.3476043112139292,0.355844685820989,0.3545157635935599,0.1985298844093935,0.0459812374675434,0.0,0.0,0.0,0.0,0.0,0.0,0.0,0.0,0.0,0.0,0.0,0.0396681963891307,0.188730734227417,0.3533400769311228,0.4138179272453917,0.4296830922070441,0.3175569305130345,0.3156362019656371,0.3181196749155044,0.3262966417025675,0.3277048237049923,0.3201460831628961,0.1923111624632257,0.047017691125238,0.0,0.0,0.0,0.0,0.0,0.0,0.0,0.0,0.0,0.0,0.0,0.0400452087188605,0.1876942805697224,0.3409015762417873,0.4920367571962128,0.5829635710713552,0.5659095094847663,0.5515978361130308,0.4826999557017117,0.4900446948513193,0.4891173554838688,0.3491947906988443,0.1932532969886754,0.0473003843227229,0.0,0.0,0.0,0.0,0.0,0.0,0.0,0.0,0.0,0.0,0.0,0.0365588354160468,0.158296301625293,0.2986904620715424,0.4268350242921963,0.3066058716011196,0.3294062668749014,0.5672278637421958,0.5586545980801538,0.5126733606126104,0.3785922412447737,0.3441063131441161,0.169226224597209,0.0483368379804176,0.0,0.0,0.0,0.0,0.0,0.0,0.0,0.0,0.0,0.0,0.0,0.044379397414879,0.1679070777420295,0.2775835839901701,0.3801932886996881,0.3918788215265638,0.4759258869320736,0.5306706135216489,0.5036271782930937,0.4015828599785454,0.2327333835118162,0.1686608382022393,0.1207950674845465,0.0348629404303874,0.0,0.0,0.0,0.0,0.0,0.0,0.0,0.0,0.0,0.0,0.0,0.0104588557091912,0.1207950674845465,0.2239704227882843,0.300008816328972,0.4262696378972265,0.4509564158159077,0.5053233374780031,0.5970031192156051,0.5405622334411204,0.4562324748381257,0.3335541950996799,0.1827944412794842,0.0505040644280518,0.0,0.0,0.0,0.0,0.0,0.0,0.0,0.0,0.0,0.0,0.0,0.0335437935752079,0.105436636684367,0.2191649026302911,0.3147088625981867,0.2920934067993949,0.3025530551063361,0.4519920768758523,0.4316408086494395,0.4884568573589041,0.3941377251139432,0.3384524491944181,0.1882596669646922,0.0522942785459561,0.0,0.0,0.0,0.0,0.0,0.0,0.0,0.0,0.0,0.0,0.0,0.0454158510725736,0.1875056423052325,0.3510785313512436,0.4828029934092062,0.4506737226184227,0.5246759325394692,0.4826682517917134,0.3934058931914823,0.3806662053571629,0.2395174918529537,0.3429755403541765,0.1893901755553818,0.0517288921509863,0.0,0.0,0.0,0.0,0.0,0.0,0.0,0.0,0.0,0.0,0.0,0.0440967042173941,0.1858097473195731,0.3461802772565053,0.2845558021972976,0.4535614204207684,0.4702059731698792,0.4245127128848204,0.3473929518139405,0.3469887269614621,0.3494272860388318,0.2768306161277103,0.149910353231491,0.0392914482586508,0.0,0.0,0.0,0.0,0.0,0.0,0.0,0.0,0.0,0.0,0.0,0.0270423784315552,0.0071611206708674,0.1011965029213435,0.1992839090688532,0.4506737226184227,0.3069810345360995,0.2674066288807138,0.4122300897529766,0.4170358741102198,0.2171863144471468,0.147083685455892,0.1048712502893972,0.0546498790588303,0.0,0.0,0.0,0.0,0.0,0.0,0.0,0.0,0.0,0.0,0.0,0.0490905984406273,0.2101195129085243,0.3900875506116595,0.5276534580868101,0.6207969036693339,0.6120571924798008,0.5456639209583478,0.5103721851452333,0.5193470336672539,0.5096562051777715,0.3770836635273543,0.2062563914752307,0.055309584586045,0.0,0.0,0.0,0.0,0.0,0.0,0.0,0.0,0.0,0.0,0.0,0.0491849175728722,0.2021105768444522,0.3632343388430942,0.4908135146687782,0.5765567392591975,0.6039700534377329,0.6184006164719619,0.4991516429983328,0.4998729069507943,0.4824278304742262,0.3565448138334515,0.2016392453824774,0.0551209463215551,0.0,0.0,0.0,0.0,0.0,0.0,0.0,0.0,0.0,0.0,0.0,0.0278901938247599,0.1990012158713683,0.3588988291508258,0.4856299253840552,0.5744827751468082,0.6013518388703728,0.600205214125434,0.4479419023735687,0.5660363251247595,0.4800711731643521,0.3550362361160321,0.1995663380670881,0.0543671858613454,0.0,0.0,0.0,0.0,0.0,0.0,0.0,0.0,0.0,0.0,0.0,0.0490905984406273,0.1925938556607106,0.3478737944489148,0.4706498279098555,0.555827666105305,0.6032223695602729,0.6159409214545933,0.5328370473715331,0.5410774219785929,0.1144822906053837,0.1801564117683751,0.1979644980144237,0.058136252361644,0.0,0.0,0.0,0.0,0.0,0.0,0.0,0.0,0.0,0.0,0.0,0.0513521440205065,0.1574482220328383,0.3440112014141211,0.4652786571576424,0.5379783647762585,0.5327392936490384,0.4274373985821641,0.4022433581035101,0.1556580079149339,0.4191071962301091,0.2719297200404721,0.1952321493710697,0.0592670251515836,0.0,0.0,0.0,0.0,0.0,0.0,0.0,0.0,0.0,0.0,0.0,0.0508810767577816,0.1892018014901419,0.3428804286241816,0.4571386782655773,0.4677911920250082,0.40561454053333,0.3339293580346598,0.3272530429875165,0.3147194305681861,0.2965451641616571,0.2884342471870904,0.1669649432165799,0.0578535591641591,0.0,0.0,0.0,0.0,0.0,0.0,0.0,0.0,0.0,0.0,0.0,0.0502213712305669,0.1929708679904405,0.3556016225110019,0.4838412964616507,0.572503922764414,0.6113729164223374,0.6235604278241863,0.5481923077807128,0.5230431811745564,0.4810143644868018,0.3460851655265104,0.1988125776068784,0.058324626426884,0.0,0.0,0.0,0.0,0.0,0.0,0.0,0.0,0.0,0.0,0.0,0.0507867576255367,0.1908036415428063,0.3431631218216665,0.4789404003744126,0.571658485164459,0.621785008864281,0.6353516403510564,0.521946754287115,0.4773129329944995,0.4622641437153035,0.3416571860967469,0.1970223634889741,0.0587956936896088,0.0,0.0,0.0,0.0,0.0,0.0,0.0,0.0,0.0,0.0,0.0,0.0316592603250586,0.1844906004643935,0.3127300102157924,0.4193898894275941,0.5465939023182982,0.5510218817480617,0.5042876764180584,0.5562979407702797,0.4713076840423204,0.4207108856775235,0.30585026174616,0.1939130025158902,0.0595494541498185,0.0,0.0,0.0,0.0,0.0,0.0,0.0,0.0,0.0,0.0,0.0,0.0520115853484712,0.1613116076653819,0.3376994813319584,0.455571976713161,0.5368872218738168,0.5583639789051694,0.5512913649830473,0.4584702424855062,0.3213032758778343,0.3741642618150103,0.3340244697646547,0.1622537421908315,0.0620936929271826,0.0,0.0,0.0,0.0,0.0,0.0,0.0,0.0,0.0,0.0,0.0,0.0534250513358957,0.1854327349898432,0.3318580359147705,0.450108336223453,0.533590015233993,0.5715897933594628,0.5825117903538793,0.4664199979175815,0.45877407162299,0.3906529370066294,0.3094328035759685,0.1482144582458316,0.0561573999792497,0.0,0.0,0.0,0.0,0.0,0.0,0.0,0.0,0.0,0.0,0.0,0.0458871825345484,0.1891074823578969,0.2967116096891481,0.3869779254393257,0.485820148844045,0.4187320332951292,0.4364465930066828,0.4648083824926676,0.413738667470396,0.4069117588507607,0.3019876687113663,0.1178743447759525,0.0577592400319142,0.0,0.0,0.0,0.0,0.0,0.0,0.0,0.0,0.0,0.0,0.0,0.0439083301521541,0.1807215339640949,0.2927539049243596,0.3990386212011813,0.4393580687415273,0.4332735600143523,0.3282015182949658,0.3292398213474103,0.3326638436272274,0.3373084664419793,0.3295674284173929,0.2041834841598415,0.0579478782964041,0.0,0.0,0.0,0.0,0.0,0.0,0.0,0.0,0.0,0.0,0.0,0.0482427830474226,0.1479317650483467,0.2931317098518394,0.397154880548782,0.4384148774190777,0.440879856421446,0.3206269257978705,0.3210972004628453,0.3239611203326923,0.3302966183473539,0.2716470268429872,0.1813812394913097,0.0589843319540987,0.0,0.0,0.0,0.0,0.0,0.0,0.0,0.0,0.0,0.0,0.0,0.0483368379804176,0.1822293190837643,0.2627908037842104,0.3884865031567451,0.438988189791547,0.377931743119809,0.2007914299892727,0.3650229677654986,0.4580237457530301,0.3683201744053224,0.2880432322971112,0.1802504667013701,0.0598321473473034,0.0,0.0,0.0,0.0,0.0,0.0,0.0,0.0,0.0,0.0,0.0,0.049938678033082,0.177612172991011,0.313860783005732,0.3940452553764481,0.4842164593966307,0.5050406442805182,0.5474419819107529,0.4931675299861525,0.4370119794016526,0.3495699536338242,0.2756998433377707,0.1757276397408617,0.0238386983262264,0.0,0.0,0.0,0.0,0.0,0.0,0.0,0.0,0.0,0.0,0.0,0.0456044893370635,0.1903325742800815,0.3394881102543628,0.4576459408255502,0.539148767453696,0.5854126981187243,0.5987943901305094,0.5697034107145637,0.5089798550978077,0.4567027495031007,0.3428804286241816,0.2010741231867576,0.0645433483730517,0.0,0.0,0.0,0.0,0.0,0.0,0.0,0.0,0.0,0.0,0.0,0.0468293170599981,0.1892018014901419,0.3345898561596245,0.4523698818033321,0.5341554016289627,0.5794787829640413,0.2824844800774083,0.3220562437402941,0.3997915890636411,0.4516169139408724,0.3349650190946044,0.1973050566864589,0.0599264664795484,0.0,0.0,0.0,0.0,0.0,0.0,0.0,0.0,0.0,0.0,0.0,0.0548382531240702,0.1034580485012227,0.3272398330250172,0.4427583130888456,0.5243562514469863,0.4429458945563356,0.4133608625429161,0.2585506700211869,0.0624704410576625,0.2102138320407693,0.2313199175243917,0.1632901958485262,0.0611512942024829,0.0,0.0,0.0,0.0,0.0,0.0,0.0,0.0,0.0,0.0,0.0,0.0504097452958068,0.1941013765811301,0.349947758561304,0.4308297169519829,0.4367107922566687,0.3491445928413469,0.3254115742151149,0.3333428356996911,0.3350099329671021,0.3362754473745344,0.3128885297657839,0.2116270338289438,0.0652971088332615,0.0,0.0,0.0,0.0,0.0,0.0,0.0,0.0,0.0,0.0,0.0,0.052765345808681,0.1874115873722375,0.3321407291122554,0.4476592091760838,0.5288793426067446,0.574955691804283,0.587888245091092,0.5155319964974576,0.4679127236800017,0.4538784595207515,0.2492225871019352,0.1699799850574188,0.0676527093461356,0.0,0.0,0.0,0.0,0.0,0.0,0.0,0.0,0.0,0.0,0.0,0.0515405180857464,0.1898612428181066,0.2151134071317575,0.4548190088507012,0.2956759486292035,0.5876742436986035,0.5937983823132763,0.4531228496657918,0.5352861744189022,0.4554795069756659,0.3455197791315406,0.205502631015021,0.0667105748206859,0.0,0.0,0.0,0.0,0.0,0.0,0.0,0.0,0.0,0.0,0.0,0.0515405180857464,0.1878826546349623,0.3342120512321447,0.4523698818033321,0.5287842308767496,0.4336196610318338,0.5977560870780648,0.5760864645942225,0.5304803900616591,0.4532179613957868,0.3406188830443024,0.2037124168971166,0.0685951080708353,0.0,0.0,0.0,0.0,0.0,0.0,0.0,0.0,0.0,0.0,0.0,0.0532366772706558,0.1344576032990666,0.3308197328623259,0.4445495840037499,0.5237908650520164,0.5704326006445246,0.5843770370587796,0.566757589077221,0.5213417380046473,0.3280879126174719,0.2325447452473263,0.1937246284506502,0.0629415083203873,0.0,0.0,0.0,0.0,0.0,0.0,0.0,0.0,0.0,0.0,0.0,0.0532366772706558,0.1850559868593634,0.3271447212950222,0.4438890858787852,0.5257697174344107,0.3124473170183074,0.4172234555777098,0.091585726804607,0.5041925646880635,0.4510488855534027,0.3513612245487285,0.2091773783830746,0.0648260415705366,0.0,0.0,0.0,0.0,0.0,0.0,0.0,0.0,0.0,0.0,0.0,0.0521059044807162,0.1858097473195731,0.3332715019021949,0.4502959176909429,0.5334975454964979,0.4018655531760303,0.5637536436048814,0.4784701257094377,0.2272681578266082,0.0242154464567062,0.0370299026787716,0.0342032349031726,0.0200696318259277,0.0,0.0,0.0,0.0,0.0,0.0,0.0,0.0,0.0,0.0,0.0,0.0521059044807162,0.185998121384813,0.3291235736774165,0.4064150642607873,0.4206950337225243,0.3306585713198345,0.2586449891534318,0.3769225019848629,0.3230628428827403,0.3387536363394021,0.3299901472173702,0.1773294797935261,0.072175536306644,0.0,0.0,0.0,0.0,0.0,0.0,0.0,0.0,0.0,0.0,0.0,0.0296806721419143,0.1819466258862795,0.3233772399902235,0.3572026699659164,0.525109219309446,0.3690757842602821,0.2323563711820863,0.3508909498837537,0.4481294838410586,0.2967116096891481,0.0812211902276607,0.0051822682884731,0.0668048939529309,0.0,0.0,0.0,0.0,0.0,0.0,0.0,0.0,0.0,0.0,0.0,0.0521059044807162,0.1838308949371788,0.3299716532698712,0.449920754755963,0.5253919125069308,0.4126078946804564,0.2943549523792741,0.4348429035592685,0.4543487341857264,0.4545363156532164,0.33336397163969,0.0883820466992782,0.0401395278511055,0.0,0.0,0.0,0.0,0.0,0.0,0.0,0.0,0.0,0.0,0.0,0.0520115853484712,0.1843962813321486,0.3286532990124416,0.4466209061236392,0.5296323104692044,0.3866001205118459,0.1344576032990666,0.5154051808574645,0.4669748163425518,0.3411842694392722,0.0404222210485904,0.0708563894514645,0.0512578248882615,0.0,0.0,0.0,0.0,0.0,0.0,0.0,0.0,0.0,0.0,0.0,0.0321303275877834,0.1162725047232881,0.097050688290565,0.1056250107496069,0.1757276397408617,0.25007040249514,0.4837461847316558,0.4243858972448271,0.1285215745503837,0.0244981396541911,0.1094883963821505,0.0794307119105064,0.0478657707176927,0.0,0.0,0.0,0.0,0.0,0.0,0.0,0.0,0.0,0.0,0.0,0.0506924384932917,0.1841135881346637,0.3293137971374064,0.4495429498284831,0.5236957533220216,0.4698017483174008,0.5904087059359574,0.572411453026919,0.5257697174344107,0.449920754755963,0.3490996789688493,0.2105905801712492,0.0690661753335601,0.0006594413279647,0.0,0.0,0.0,0.0,0.0,0.0,0.0,0.0,0.0,0.0,0.0445680356793689,0.1841135881346637,0.3349650190946044,0.4576459408255502,0.5269929599618454,0.4354082899542383,0.506390702447946,0.3919633652865593,0.3705447320902036,0.3746345364799851,0.3540005750560875,0.2085176728558599,0.0764156700696675,0.0006594413279647,0.0,0.0,0.0,0.0,0.0,0.0,0.0,0.0,0.0,0.0,0.041458674706285,0.1828887604117292,0.3262041719650725,0.411286898430527,0.4687106054149591,0.470322220839873,0.3562779725909658,0.3623941852281391,0.3723756328926058,0.3731655886500636,0.3490045672388544,0.2122867393561585,0.0689718562013151,0.0007537604602097,0.0,0.0,0.0,0.0,0.0,0.0,0.0,0.0,0.0,0.0,0.0494676107703571,0.1895788138198717,0.3397708034518477,0.4571756661605753,0.4884568573589041,0.5144619895350149,0.6309236609212928,0.6098167828399206,0.5627047725824375,0.4837461847316558,0.3575804748933963,0.2175633267768766,0.0677470284783806,0.0014134659874244,0.0,0.0,0.0,0.0,0.0,0.0,0.0,0.0,0.0,0.0,0.0433429437571844,0.1531140333368198,0.2760750062727507,0.4007347803860907,0.4715903772398053,0.5133312167450753,0.5422583926260298,0.5779702052466219,0.5297274221991993,0.4549141205806962,0.3465554401914852,0.210873273368734,0.0699142549260148,0.0005653863949697,0.0,0.0,0.0,0.0,0.0,0.0,0.0,0.0,0.0,0.0,0.0459812374675434,0.1698859301244238,0.2740987958828563,0.2644872271683697,0.2245358091832542,0.366531545482918,0.5007077765807497,0.366531545482918,0.4645230473026828,0.3756701975399298,0.2929414863918496,0.0733063090965836,0.0600207856117933,0.0,0.0,0.0,0.0,0.0,0.0,0.0,0.0,0.0,0.0,0.0,0.0445680356793689,0.1406763252452343,0.3322331988497504,0.1628191285858014,0.0603034788092782,0.0441910233496391,0.1807215339640949,0.3397708034518477,0.5762740460617125,0.4165629574527451,0.2688200948681383,0.191557402003016,0.0774521237273621,0.0015075209204194,0.0,0.0,0.0,0.0,0.0,0.0,0.0,0.0,0.0,0.0,0.0,0.0424008092317347,0.1697916109921788,0.2604352032713362,0.4698942180548959,0.5459334041933335,0.6254600204315848,0.5206812398796826,0.4593421000104596,0.2521433098105292,0.3132953966107621,0.1624421162560715,0.0696315617285299,0.0007537604602097,0.0,0.0,0.0,0.0,0.0,0.0,0.0,0.0,0.0,0.0,0.0419297419690099,0.1814752944243046,0.2756047316077758,0.4443593605437601,0.5244513631769812,0.5697536085720609,0.5228476737295669,0.4808135730568125,0.4062803226432944,0.3766160308548792,0.3457073605990305,0.2121924202239136,0.0718928431091591,0.0014134659874244,0.0,0.0,0.0,0.0,0.0,0.0,0.0,0.0,0.0,0.0,0.0487138503101474,0.1796850803064003,0.3251685109051279,0.4431361180163254,0.4725256425847553,0.4455641091236957,0.3270839554675255,0.2976997148840953,0.3075490629235691,0.3265344210275549,0.3011422311114115,0.2161498607894521,0.071987162241404,0.0022612813806291,0.0,0.0,0.0,0.0,0.0,0.0,0.0,0.0,0.0,0.0,0.0454158510725736,0.1788372649131956,0.3274274144925072,0.3854693477219063,0.2947327573067538,0.1176857065114626,0.6197110447518919,0.5851300049212395,0.5634603824373972,0.3948933349689028,0.1173089583809827,0.1686608382022393,0.0726466035693688,0.0022612813806291,0.0,0.0,0.0,0.0,0.0,0.0,0.0,0.0,0.0,0.0,0.047206329389728,0.1763873452680765,0.3230945467927387,0.4445495840037499,0.5355688676163872,0.5859780845136942,0.602656983165303,0.0947894069099358,0.0692545493988,0.2134172479468481,0.275039345212806,0.1514178741519105,0.0510694508230216,0.0,0.0,0.0,0.0,0.0,0.0,0.0,0.0,0.0,0.0,0.0,0.0405162759815854,0.1766700384655614,0.3244129010501682,0.4467160178536342,0.5338727084314778,0.1254122135772998,0.1123150641577495,0.1073211699345163,0.1995666022663381,0.2593044304813966,0.2767355043977154,0.2106848993034941,0.0725525486363738,0.0,0.0,0.0,0.0,0.0,0.0,0.0,0.0,0.0,0.0,0.0,0.0288325925494596,0.1618767298611017,0.3100906597084334,0.444266890806265,0.3751999228749549,0.1628191285858014,0.4371044491391477,0.4519920768758523,0.3575804748933963,0.3670018201478929,0.177518118058016,0.213794260276578,0.0407989691790703,0.0,0.0,0.0,0.0,0.0,0.0,0.0,0.0,0.0,0.0,0.0,0.0505983835602967,0.1015735152510734,0.2607178964688211,0.3464603284614903,0.0196928836954479,0.0454158510725736,0.0648260415705366,0.1394514975222998,0.2960511115641834,0.4445495840037499,0.2854038817897523,0.0097994143812264,0.0734006282288285,0.0,0.0,0.0,0.0,0.0,0.0,0.0,0.0,0.0,0.0,0.0,0.0440967042173941,0.1745971311501721,0.3183838741654903,0.4379525287316024,0.5186099177597933,0.5406916910736135,0.49115433170126,0.4315879687994424,0.4143833136403616,0.3875433118342954,0.3408091065042922,0.2086119919881049,0.0808441778979309,0.0,0.0,0.0,0.0,0.0,0.0,0.0,0.0,0.0,0.0,0.0,0.0464523047302682,0.1680013968742745,0.3051924056136951,0.4322061950444094,0.4841187056741359,0.4536882360607617,0.4046581392483812,0.3692343038102736,0.3779396690973086,0.3838867942144908,0.3327061155072252,0.2043718582250814,0.0700083098590098,0.0,0.0,0.0,0.0,0.0,0.0,0.0,0.0,0.0,0.0,0.0,0.0457928634023035,0.169414862861699,0.3081118073260391,0.4247610601798071,0.4550065903181912,0.522282287334597,0.5034395968256037,0.497032765013446,0.4464333246561492,0.38876919635423,0.299821234861482,0.2033354045673868,0.0764156700696675,0.0,0.0,0.0,0.0,0.0,0.0,0.0,0.0,0.0,0.0,0.0,0.0439083301521541,0.1661168636241252,0.3015173940463914,0.4153397149253104,0.4996853254833043,0.4220292399349531,0.3521141924111883,0.5170907720723744,0.0862150844508939,0.1362478174169709,0.1531140333368198,0.2118156720934337,0.0711390826489493,0.0,0.0,0.0,0.0,0.0,0.0,0.0,0.0,0.0,0.0,0.0,0.0441910233496391,0.1669649432165799,0.3042492142912454,0.4187320332951292,0.502591517233149,0.552718040932971,0.3746345364799851,0.3516439177462134,0.5257697174344107,0.4457728265311845,0.3406188830443024,0.2120040461586737,0.0807498587656859,0.0005653863949697,0.0,0.0,0.0,0.0,0.0,0.0,0.0,0.0,0.0,0.0,0.041647048771525,0.1696032369269389,0.3130127034132773,0.4327715814393791,0.5181370011023185,0.5673229754721907,0.5281263747442848,0.4993867803308202,0.3063231784036347,0.3974375737462668,0.3164974915205911,0.1996606571993331,0.0790539637800265,0.0005653863949697,0.0,0.0,0.0,0.0,0.0,0.0,0.0,0.0,0.0,0.0,0.0400452087188605,0.1607462212704121,0.2536510949301987,0.3842461051944716,0.474795114142134,0.4571756661605753,0.4714027957723153,0.3433533452816563,0.4179790654326694,0.3521141924111883,0.3075464209310693,0.1993779640018482,0.02751344569428,0.0,0.0,0.0,0.0,0.0,0.0,0.0,0.0,0.0,0.0,0.0,0.0101761625117063,0.0539904377308655,0.1514178741519105,0.1753508916103818,0.358428554485851,0.49995216672579,0.4665018996850771,0.463957660907713,0.4218416584674631,0.3238475146551984,0.2251011955782239,0.1716761442423282,0.0660511334927212,0.0,0.0,0.0,0.0,0.0,0.0,0.0,0.0,0.0,0.0,0.0,0.0412700364417951,0.105436636684367,0.1632901958485262,0.2826720615448982,0.4292841513395654,0.4326764697093843,0.4040319870259146,0.4079844078057034,0.3547429749485478,0.3701801371252231,0.2961462232941784,0.1531140333368198,0.0543671858613454,0.0,0.0,0.0,0.0,0.0,0.0,0.0,0.0,0.0,0.0,0.0,0.0352396885608673,0.161123233600142,0.2962413350241732,0.4122300897529766,0.3764258073948894,0.4374822540666275,0.1902382551478365,0.5409400383686003,0.4801662848943471,0.3487218740413695,0.0893244454239778,0.0393855031916458,0.0,0.0,0.0,0.0,0.0,0.0,0.0,0.0,0.0,0.0,0.0,0.0,0.0409873432443102,0.1613116076653819,0.2965240282216582,0.4158099895902853,0.5073973015903923,0.3122597355508175,0.5102215915727414,0.5152175993899745,0.3284657175449517,0.4103463491005772,0.2675017406107087,0.1787429457809506,0.0513521440205065,0.0,0.0,0.0,0.0,0.0,0.0,0.0,0.0,0.0,0.0,0.0,0.0385376877984411,0.1635728890460111,0.3084896122535189,0.3789700461722535,0.4396486879165117,0.4642429960976978,0.3788749344422585,0.3599344902107704,0.4479419023735687,0.4546314273832113,0.3076415326610642,0.2006027917247827,0.0784885773850567,0.0005653863949697,0.0,0.0,0.0,0.0,0.0,0.0,0.0,0.0,0.0,0.0,0.0396681963891307,0.1617826749281067,0.3033060229687959,0.4242907855148322,0.5114474760926758,0.5636479639048871,0.5127658303501055,0.5770270139241723,0.5314235813841087,0.4577410525555451,0.3483467111063895,0.2124751134213985,0.072081481373649,0.0,0.0,0.0,0.0,0.0,0.0,0.0,0.0,0.0,0.0,0.0,0.0390087550611659,0.161122969400892,0.2650526135633395,0.3657785776204583,0.3408091065042922,0.1402052579825095,0.0927164995945466,0.2283048756835528,0.4488824517035184,0.3289359922099266,0.2707064775130375,0.211061647433974,0.0580419332293991,0.0,0.0,0.0,0.0,0.0,0.0,0.0,0.0,0.0,0.0,0.0,0.0335437935752079,0.1135398918806841,0.3087723054510038,0.1756335848078667,0.4163753759852551,0.413926248937886,0.0974277006202949,0.141712778902929,0.2704237843155526,0.2625081105867255,0.2094600715805596,0.1167435719860129,0.0228022446685317,0.0,0.0,0.0,0.0,0.0,0.0,0.0,0.0,0.0,0.0,0.0,0.0172429640503287,0.1200413070243367,0.0435315820216743,0.1168378911182579,0.1402052579825095,0.2659931628932893,0.277866277187655,0.3084896122535189,0.3260139485050827,0.3295964903348913,0.041458674706285,0.1043058638944274,0.0649203607027816,0.0,0.0,0.0,0.0,0.0,0.0,0.0,0.0,0.0,0.0,0.0,0.0126260821568254,0.0954488482379006,0.1440683794158031,0.2404596263784034,0.549891108958122,0.4620739202553137,0.602469401697813,0.3979078484112417,0.2497877092976551,0.4366341744741728,0.3550362361160321,0.2152077262640025,0.075002204082243,0.0,0.0,0.0,0.0,0.0,0.0,0.0,0.0,0.0,0.0,0.0,0.0315649411928136,0.1648920359011906,0.3213983876078293,0.4624517251827935,0.5562979407702797,0.2446054410091819,0.508150269452852,0.5981338920055447,0.549891108958122,0.4753605005371038,0.3621035660531546,0.1642323303739759,0.0687834821360752,0.0,0.0,0.0,0.0,0.0,0.0,0.0,0.0,0.0,0.0,0.0,0.0342975540354176,0.1622537421908315,0.311221432498373,0.4346553220917785,0.5211515145446575,0.5733520023568687,0.4118522848254967,0.5823030729463905,0.3608776815332201,0.4632046930452533,0.3493823721663343,0.2117213529611887,0.0763213509374225,0.0,0.0,0.0,0.0,0.0,0.0,0.0,0.0,0.0,0.0,0.0,0.0361820872855669,0.1579195534948131,0.2573258422982524,0.3866001205118459,0.4554795069756659,0.5090934607753017,0.577592400319142,0.5636479639048871,0.2593987496136416,0.339017835589388,0.3432582335516614,0.208234979658375,0.0664278816232011,0.0,0.0,0.0,0.0,0.0,0.0,0.0,0.0,0.0,0.0,0.0,0.0348629404303874,0.1552812597844541,0.2970894146166279,0.419297419690099,0.5069243849329176,0.5590297610151338,0.5770270139241723,0.572316341296924,0.5281263747442848,0.4544412039232214,0.3461802772565053,0.2088946851855898,0.0741543886890383,0.0,0.0,0.0,0.0,0.0,0.0,0.0,0.0,0.0,0.0,0.0,0.0310938739300888,0.1564117683751437,0.3066058716011196,0.4317332783869346,0.3853768779844112,0.2078582315278951,0.5696082989845687,0.5580073099176884,0.5065333700429384,0.4224968726074281,0.3662488522854331,0.2161498607894521,0.0690661753335601,0.0,0.0,0.0,0.0,0.0,0.0,0.0,0.0,0.0,0.0,0.0,0.0279845129570049,0.1557523270471789,0.2859692681847221,0.2989731552690273,0.1393571783900548,0.3556016225110019,0.4985756886333635,0.4617436711928313,0.3832078021420271,0.3694298112552632,0.2593044304813966,0.1753508916103818,0.0684067340055953,0.0,0.0,0.0,0.0,0.0,0.0,0.0,0.0,0.0,0.0,0.0,0.0260999797068556,0.1273908017604441,0.26373293830966,0.3957414145613575,0.4370119794016526,0.5099415403677564,0.5913492552659071,0.4954290755660317,0.4562324748381257,0.4218416584674631,0.3457073605990305,0.180533159898855,0.0650146798350265,0.0,0.0,0.0,0.0,0.0,0.0,0.0,0.0,0.0,0.0,0.0,0.0270423784315552,0.1551869406522091,0.3091501103784836,0.4339023542293187,0.522002236129612,0.5737298072843484,0.4134559742729111,0.074908149149248,0.2588333632186718,0.4430410062863305,0.3654007726929784,0.1892961206223868,0.0668048939529309,0.0,0.0,0.0,0.0,0.0,0.0,0.0,0.0,0.0,0.0,0.0,0.0302457943376341,0.1228679747999357,0.2546872843886433,0.3343071629621396,0.4596247932079445,0.2908701642719603,0.2402712523131635,0.3403361898468175,0.3774614684548341,0.3213983876078293,0.2136058862113381,0.0964853018955952,0.0391030741934109,0.0,0.0,0.0,0.0,0.0,0.0,0.0,0.0,0.0,0.0,0.0,0.0148873635374546,0.1057193298818519,0.1160838664587982,0.1223969075372109,0.3521141924111883,0.3003866212564518,0.3070761462660944,0.4614160641228488,0.4343726288942936,0.4141138304053759,0.244228692878702,0.1020445825137982,0.066616255688441,0.0,0.0,0.0,0.0,0.0,0.0,0.0,0.0,0.0,0.0,0.0,0.0280788320892498,0.1518892056138853,0.2234050363933145,0.2230282882628347,0.5280312630142899,0.4321110833144144,0.4291890396095705,0.5865434709086639,0.5383957995912362,0.4644305775651878,0.2461129619296014,0.1563177134421487,0.0216714718785922,0.0,0.0,0.0,0.0,0.0,0.0,0.0,0.0,0.0,0.0,0.0,0.02751344569428,0.1519832605468803,0.3006693144539367,0.42
...